Circuit: * C:\Users\Romain Vitrat\Documents\Travaux personnels\Elec\PowerMeter\power_meter.asc

Direct Newton iteration for .op point succeeded.

Date: Wed Jan 13 13:54:05 2021
Total elapsed time: 0.704 seconds.

tnom = 27
temp = 27
method = modified trap
totiter = 53941
traniter = 53909
tranpoints = 23035
accept = 21812
rejected = 1223
matrix size = 15
fillins = 2
solver = Normal
Matrix Compiler1: 824 bytes object code size  1.4/1.2/[1.1]
Matrix Compiler2: off  [1.1]/1.4/2.9

